<?xml version="1.0" encoding="UTF-8"?>

<!-- generated on Wed Apr 10 16:30:14 2019 by Netedit Version 0.32.0
<?xml version="1.0" encoding="UTF-8"?>

<configuration xmlns:xsi="http://www.w3.org/2001/XMLSchema-instance" xsi:noNamespaceSchemaLocation="http://sumo.dlr.de/xsd/netconvertConfiguration.xsd">

    <input>
        <sumo-net-file value="/Users/chenchacha/RLSignal/data/real_net/clean_atlanta.net.xml"/>
    </input>

    <output>
        <output-file value="/Users/chenchacha/RLSignal/data/real_net/atlanta_left_lane.net.xml"/>
    </output>

    <processing>
        <no-turnarounds value="true"/>
        <offset.disable-normalization value="true"/>
        <lefthand value="false"/>
        <junctions.corner-detail value="5"/>
        <rectangular-lane-cut value="false"/>
        <walkingareas value="false"/>
    </processing>

</configuration>
-->

<net version="0.27" junctionCornerDetail="5" xmlns:xsi="http://www.w3.org/2001/XMLSchema-instance" xsi:noNamespaceSchemaLocation="http://sumo.dlr.de/xsd/net_file.xsd">

    <location netOffset="-741871.03,-3739976.24" convBoundary="179.37,809.91,518.10,1709.67" origBoundary="-84.39,33.77,-84.36,33.79" projParameter="+proj=utm +zone=16 +ellps=WGS84 +datum=WGS84 +units=m +no_defs"/>

    <type id="highway.bridleway" priority="1" numLanes="1" speed="2.78" allow="pedestrian" oneway="1" width="2.00"/>
    <type id="highway.bus_guideway" priority="1" numLanes="1" speed="27.78" allow="bus" oneway="1"/>
    <type id="highway.cycleway" priority="1" numLanes="1" speed="8.33" allow="bicycle" oneway="0" width="1.00"/>
    <type id="highway.footway" priority="1" numLanes="1" speed="2.78" allow="pedestrian" oneway="1" width="2.00"/>
    <type id="highway.ford" priority="1" numLanes="1" speed="2.78" allow="army" oneway="0"/>
    <type id="highway.living_street" priority="3" numLanes="1" speed="2.78" disallow="tram rail_urban rail rail_electric ship" oneway="0"/>
    <type id="highway.motorway" priority="13" numLanes="2" speed="44.44" allow="private emergency authority army vip passenger hov taxi bus coach delivery truck trailer motorcycle evehicle custom1 custom2" oneway="1"/>
    <type id="highway.motorway_link" priority="12" numLanes="1" speed="22.22" allow="private emergency authority army vip passenger hov taxi bus coach delivery truck trailer motorcycle evehicle custom1 custom2" oneway="1"/>
    <type id="highway.path" priority="1" numLanes="1" speed="2.78" allow="bicycle pedestrian" oneway="1" width="2.00"/>
    <type id="highway.pedestrian" priority="1" numLanes="1" speed="2.78" allow="pedestrian" oneway="1" width="2.00"/>
    <type id="highway.primary" priority="9" numLanes="2" speed="27.78" disallow="tram rail_urban rail rail_electric ship" oneway="0"/>
    <type id="highway.primary_link" priority="8" numLanes="1" speed="22.22" disallow="tram rail_urban rail rail_electric ship" oneway="0"/>
    <type id="highway.raceway" priority="14" numLanes="2" speed="83.33" allow="vip" oneway="0"/>
    <type id="highway.residential" priority="4" numLanes="1" speed="13.89" disallow="tram rail_urban rail rail_electric ship" oneway="0"/>
    <type id="highway.secondary" priority="7" numLanes="2" speed="27.78" disallow="tram rail_urban rail rail_electric ship" oneway="0"/>
    <type id="highway.secondary_link" priority="6" numLanes="1" speed="22.22" disallow="tram rail_urban rail rail_electric ship" oneway="0"/>
    <type id="highway.service" priority="2" numLanes="1" speed="5.56" allow="delivery bicycle pedestrian" oneway="0"/>
    <type id="highway.stairs" priority="1" numLanes="1" speed="1.39" allow="pedestrian" oneway="1" width="2.00"/>
    <type id="highway.step" priority="1" numLanes="1" speed="1.39" allow="pedestrian" oneway="1" width="2.00"/>
    <type id="highway.steps" priority="1" numLanes="1" speed="1.39" allow="pedestrian" oneway="1" width="2.00"/>
    <type id="highway.tertiary" priority="6" numLanes="1" speed="22.22" disallow="tram rail_urban rail rail_electric ship" oneway="0"/>
    <type id="highway.tertiary_link" priority="5" numLanes="1" speed="22.22" disallow="tram rail_urban rail rail_electric ship" oneway="0"/>
    <type id="highway.track" priority="1" numLanes="1" speed="5.56" disallow="tram rail_urban rail rail_electric ship" oneway="0"/>
    <type id="highway.trunk" priority="11" numLanes="2" speed="27.78" disallow="tram rail_urban rail rail_electric bicycle pedestrian ship" oneway="0"/>
    <type id="highway.trunk_link" priority="10" numLanes="1" speed="22.22" disallow="tram rail_urban rail rail_electric bicycle pedestrian ship" oneway="0"/>
    <type id="highway.unclassified" priority="5" numLanes="1" speed="13.89" disallow="tram rail_urban rail rail_electric ship" oneway="0"/>
    <type id="highway.unsurfaced" priority="1" numLanes="1" speed="8.33" disallow="tram rail_urban rail rail_electric ship" oneway="0"/>
    <type id="railway.light_rail" priority="15" numLanes="1" speed="27.78" allow="rail_urban" oneway="1"/>
    <type id="railway.preserved" priority="15" numLanes="1" speed="27.78" allow="rail" oneway="1"/>
    <type id="railway.rail" priority="15" numLanes="1" speed="83.33" allow="rail rail_electric" oneway="1"/>
    <type id="railway.subway" priority="15" numLanes="1" speed="27.78" allow="rail_urban" oneway="1"/>
    <type id="railway.tram" priority="15" numLanes="1" speed="13.89" allow="tram" oneway="1"/>

    <edge id=":2390850312_0" function="internal">
        <lane id=":2390850312_0_0" index="0" disallow="tram rail_urban rail rail_electric ship" speed="27.78" length="4.82" shape="390.01,1710.16 388.85,1711.10 387.94,1711.25 387.27,1710.61 386.85,1709.18"/>
    </edge>
    <edge id=":5198748651_0" function="internal">
        <lane id=":5198748651_0_0" index="0" disallow="tram rail_urban rail rail_electric ship" speed="27.78" length="4.82" shape="516.11,1586.99 517.33,1587.84 517.73,1588.67 517.30,1589.49 516.05,1590.29"/>
    </edge>
    <edge id=":69227161_0" function="internal">
        <lane id=":69227161_0_0" index="0" disallow="tram rail_urban rail rail_electric ship" speed="11.18" length="4.82" shape="294.72,1224.14 293.49,1223.31 293.08,1222.48 293.50,1221.66 294.74,1220.84"/>
    </edge>
    <edge id=":69227168_0" function="internal">
        <lane id=":69227168_0_0" index="0" disallow="tram rail_urban rail rail_electric ship" speed="19.48" length="5.07" shape="366.25,1225.87 365.64,1224.65 364.76,1223.92 363.63,1223.67 362.24,1223.90"/>
    </edge>
    <edge id=":69227168_1" function="internal">
        <lane id=":69227168_1_0" index="0" disallow="tram rail_urban rail rail_electric ship" speed="19.48" length="10.23" shape="366.25,1225.87 363.03,1216.16"/>
        <lane id=":69227168_1_1" index="1" disallow="tram rail_urban rail rail_electric ship" speed="19.48" length="10.23" shape="369.38,1224.83 366.16,1215.12"/>
    </edge>
    <edge id=":69227168_3" function="internal">
        <lane id=":69227168_3_0" index="0" disallow="tram rail_urban rail rail_electric ship" speed="19.48" length="4.46" shape="369.38,1224.83 369.11,1222.03 369.74,1220.51"/>
    </edge>
    <edge id=":69227168_4" function="internal">
        <lane id=":69227168_4_0" index="0" disallow="tram rail_urban rail rail_electric ship" speed="27.78" length="2.41" shape="369.38,1224.83 369.78,1223.39 370.43,1222.74"/>
    </edge>
    <edge id=":69227168_18" function="internal">
        <lane id=":69227168_18_0" index="0" speed="19.48" length="9.05" shape="369.74,1220.51 370.19,1219.42 372.64,1217.00 376.46,1214.76"/>
    </edge>
    <edge id=":69227168_19" function="internal">
        <lane id=":69227168_19_0" index="0" speed="27.78" length="2.41" shape="370.43,1222.74 371.34,1222.87 372.52,1223.79"/>
    </edge>
    <edge id=":69227168_5" function="internal">
        <lane id=":69227168_5_0" index="0" disallow="tram rail_urban rail rail_electric ship" speed="19.48" length="6.10" shape="377.88,1217.74 376.48,1218.65 375.64,1219.79 375.36,1221.16 375.65,1222.75"/>
    </edge>
    <edge id=":69227168_6" function="internal">
        <lane id=":69227168_6_0" index="0" disallow="tram rail_urban rail rail_electric ship" speed="11.18" length="16.82" shape="377.88,1217.74 374.20,1219.40 370.16,1221.07 366.06,1222.61 362.24,1223.90"/>
    </edge>
    <edge id=":69227168_7" function="internal">
        <lane id=":69227168_7_0" index="0" disallow="tram rail_urban rail rail_electric ship" speed="11.18" length="8.02" shape="377.88,1217.74 373.64,1219.25 370.27,1219.32 370.14,1219.24"/>
    </edge>
    <edge id=":69227168_8" function="internal">
        <lane id=":69227168_8_0" index="0" disallow="tram rail_urban rail rail_electric ship" speed="11.18" length="2.41" shape="377.88,1217.74 376.41,1217.52 375.68,1216.96"/>
    </edge>
    <edge id=":69227168_20" function="internal">
        <lane id=":69227168_20_0" index="0" speed="11.18" length="5.95" shape="370.14,1219.24 367.78,1217.94 366.16,1215.12"/>
    </edge>
    <edge id=":69227168_21" function="internal">
        <lane id=":69227168_21_0" index="0" speed="11.18" length="2.41" shape="375.68,1216.96 375.70,1216.03 376.46,1214.76"/>
    </edge>
    <edge id=":69227168_9" function="internal">
        <lane id=":69227168_9_0" index="0" disallow="tram rail_urban rail rail_electric ship" speed="11.18" length="5.16" shape="372.43,1213.04 373.07,1214.33 373.96,1215.04 375.09,1215.18 376.46,1214.76"/>
    </edge>
    <edge id=":69227168_10" function="internal">
        <lane id=":69227168_10_0" index="0" disallow="tram rail_urban rail rail_electric ship" speed="19.48" length="10.23" shape="372.43,1213.04 375.65,1222.75"/>
        <lane id=":69227168_10_1" index="1" disallow="tram rail_urban rail rail_electric ship" speed="19.48" length="10.23" shape="369.29,1214.08 372.52,1223.79"/>
    </edge>
    <edge id=":69227168_12" function="internal">
        <lane id=":69227168_12_0" index="0" disallow="tram rail_urban rail rail_electric ship" speed="11.18" length="4.95" shape="369.29,1214.08 369.71,1217.28 369.10,1218.89"/>
    </edge>
    <edge id=":69227168_13" function="internal">
        <lane id=":69227168_13_0" index="0" disallow="tram rail_urban rail rail_electric ship" speed="11.18" length="2.41" shape="369.29,1214.08 368.90,1215.51 368.25,1216.16"/>
    </edge>
    <edge id=":69227168_22" function="internal">
        <lane id=":69227168_22_0" index="0" speed="11.18" length="8.81" shape="369.10,1218.89 368.68,1219.99 366.19,1222.19 362.24,1223.90"/>
    </edge>
    <edge id=":69227168_23" function="internal">
        <lane id=":69227168_23_0" index="0" speed="11.18" length="2.41" shape="368.25,1216.16 367.33,1216.03 366.16,1215.12"/>
    </edge>
    <edge id=":69227168_14" function="internal">
        <lane id=":69227168_14_0" index="0" disallow="tram rail_urban rail rail_electric ship" speed="11.18" length="5.62" shape="361.26,1220.75 362.49,1220.11 363.19,1219.14 363.37,1217.82 363.03,1216.16"/>
    </edge>
    <edge id=":69227168_15" function="internal">
        <lane id=":69227168_15_0" index="0" disallow="tram rail_urban rail rail_electric ship" speed="11.18" length="16.35" shape="361.26,1220.75 365.01,1219.49 368.96,1218.00 372.85,1216.39 376.46,1214.76"/>
    </edge>
    <edge id=":69227168_16" function="internal">
        <lane id=":69227168_16_0" index="0" disallow="tram rail_urban rail rail_electric ship" speed="19.48" length="7.20" shape="361.26,1220.75 365.44,1219.85 368.35,1220.04"/>
    </edge>
    <edge id=":69227168_17" function="internal">
        <lane id=":69227168_17_0" index="0" disallow="tram rail_urban rail rail_electric ship" speed="11.18" length="2.41" shape="361.26,1220.75 362.68,1221.17 363.32,1221.83"/>
    </edge>
    <edge id=":69227168_24" function="internal">
        <lane id=":69227168_24_0" index="0" speed="19.48" length="5.87" shape="368.35,1220.04 368.72,1220.06 371.07,1221.37 372.52,1223.79"/>
    </edge>
    <edge id=":69227168_25" function="internal">
        <lane id=":69227168_25_0" index="0" speed="11.18" length="2.41" shape="363.32,1221.83 363.18,1222.74 362.24,1223.90"/>
    </edge>
    <edge id=":69227178_0" function="internal">
        <lane id=":69227178_0_0" index="0" disallow="tram rail_urban rail rail_electric ship" speed="11.18" length="4.82" shape="508.54,1201.08 509.75,1201.94 510.14,1202.78 509.70,1203.59 508.44,1204.38"/>
    </edge>
    <edge id=":69249210_0" function="internal">
        <lane id=":69249210_0_0" index="0" disallow="tram rail_urban rail rail_electric ship" speed="20.84" length="5.21" shape="448.59,1471.86 447.11,1472.05 446.04,1472.62 445.37,1473.57 445.11,1474.89"/>
    </edge>
    <edge id=":69249210_1" function="internal">
        <lane id=":69249210_1_0" index="0" disallow="tram rail_urban rail rail_electric ship" speed="20.84" length="13.43" shape="448.59,1471.86 444.25,1471.45 441.20,1470.19 439.43,1468.07 438.94,1465.09"/>
    </edge>
    <edge id=":69249210_2" function="internal">
        <lane id=":69249210_2_0" index="0" disallow="tram rail_urban rail rail_electric ship" speed="13.89" length="2.69" shape="448.59,1471.86 447.35,1471.04 446.93,1470.21 447.05,1469.96"/>
    </edge>
    <edge id=":69249210_11" function="internal">
        <lane id=":69249210_11_0" index="0" speed="13.89" length="2.13" shape="447.05,1469.96 447.34,1469.39 448.57,1468.56"/>
    </edge>
    <edge id=":69249210_3" function="internal">
        <lane id=":69249210_3_0" index="0" disallow="tram rail_urban rail rail_electric ship" speed="20.84" length="5.06" shape="445.54,1465.39 445.67,1466.78 446.22,1467.77 447.19,1468.36 448.57,1468.56"/>
    </edge>
    <edge id=":69249210_4" function="internal">
        <lane id=":69249210_4_0" index="0" disallow="tram rail_urban rail rail_electric ship" speed="27.78" length="9.51" shape="445.54,1465.39 445.11,1474.89"/>
        <lane id=":69249210_4_1" index="1" disallow="tram rail_urban rail rail_electric ship" speed="27.78" length="9.51" shape="442.24,1465.24 441.81,1474.74"/>
    </edge>
    <edge id=":69249210_6" function="internal">
        <lane id=":69249210_6_0" index="0" disallow="tram rail_urban rail rail_electric ship" speed="27.78" length="2.41" shape="442.24,1465.24 441.36,1466.44 440.52,1466.81"/>
    </edge>
    <edge id=":69249210_12" function="internal">
        <lane id=":69249210_12_0" index="0" speed="27.78" length="2.41" shape="440.52,1466.81 439.71,1466.37 438.94,1465.09"/>
    </edge>
    <edge id=":69249210_7" function="internal">
        <lane id=":69249210_7_0" index="0" disallow="tram rail_urban rail rail_electric ship" speed="27.78" length="9.51" shape="435.22,1474.44 435.65,1464.94"/>
        <lane id=":69249210_7_1" index="1" disallow="tram rail_urban rail rail_electric ship" speed="27.78" length="9.51" shape="438.51,1474.59 438.94,1465.09"/>
    </edge>
    <edge id=":69249210_9" function="internal">
        <lane id=":69249210_9_0" index="0" disallow="tram rail_urban rail rail_electric ship" speed="20.84" length="4.32" shape="438.51,1474.59 439.24,1471.97 440.38,1470.85"/>
    </edge>
    <edge id=":69249210_10" function="internal">
        <lane id=":69249210_10_0" index="0" disallow="tram rail_urban rail rail_electric ship" speed="27.78" length="2.41" shape="438.51,1474.59 439.39,1473.39 440.23,1473.02"/>
    </edge>
    <edge id=":69249210_13" function="internal">
        <lane id=":69249210_13_0" index="0" speed="20.84" length="8.72" shape="440.38,1470.85 441.16,1470.09 444.27,1468.95 448.57,1468.56"/>
    </edge>
    <edge id=":69249210_14" function="internal">
        <lane id=":69249210_14_0" index="0" speed="27.78" length="2.41" shape="440.23,1473.02 441.04,1473.47 441.81,1474.74"/>
    </edge>
    <edge id=":69249214_0" function="internal">
        <lane id=":69249214_0_0" index="0" disallow="tram rail_urban rail rail_electric ship" speed="13.89" length="4.82" shape="518.09,1468.14 519.33,1468.96 519.75,1469.78 519.34,1470.61 518.11,1471.44"/>
    </edge>
    <edge id=":69387063_0" function="internal">
        <lane id=":69387063_0_0" index="0" disallow="tram rail_urban rail rail_electric ship" speed="13.89" length="4.82" shape="320.08,1358.78 318.63,1358.45 317.96,1357.82 318.05,1356.91 318.92,1355.70"/>
    </edge>
    <edge id=":69387071_0" function="internal">
        <lane id=":69387071_0_0" index="0" disallow="tram rail_urban rail rail_electric ship" speed="20.84" length="5.35" shape="433.34,1351.53 432.78,1350.14 431.93,1349.24 430.80,1348.85 429.38,1348.96"/>
    </edge>
    <edge id=":69387071_1" function="internal">
        <lane id=":69387071_1_0" index="0" disallow="tram rail_urban rail rail_electric ship" speed="27.78" length="9.81" shape="433.34,1351.53 430.94,1342.01"/>
        <lane id=":69387071_1_1" index="1" disallow="tram rail_urban rail rail_electric ship" speed="27.78" length="9.81" shape="436.54,1350.71 434.14,1341.21"/>
    </edge>
    <edge id=":69387071_3" function="internal">
        <lane id=":69387071_3_0" index="0" disallow="tram rail_urban rail rail_electric ship" speed="20.84" length="4.57" shape="436.54,1350.71 436.42,1347.77 437.19,1346.33"/>
    </edge>
    <edge id=":69387071_4" function="internal">
        <lane id=":69387071_4_0" index="0" disallow="tram rail_urban rail rail_electric ship" speed="27.78" length="2.41" shape="436.54,1350.71 437.03,1349.31 437.73,1348.70"/>
    </edge>
    <edge id=":69387071_18" function="internal">
        <lane id=":69387071_18_0" index="0" speed="20.84" length="8.69" shape="437.19,1346.33 437.71,1345.36 440.39,1343.48 444.48,1342.12"/>
    </edge>
    <edge id=":69387071_19" function="internal">
        <lane id=":69387071_19_0" index="0" speed="27.78" length="2.41" shape="437.73,1348.70 438.63,1348.90 439.74,1349.89"/>
    </edge>
    <edge id=":69387071_5" function="internal">
        <lane id=":69387071_5_0" index="0" disallow="tram rail_urban rail rail_electric ship" speed="20.84" length="5.03" shape="445.22,1345.33 443.93,1345.83 443.12,1346.62 442.78,1347.70 442.93,1349.08"/>
    </edge>
    <edge id=":69387071_6" function="internal">
        <lane id=":69387071_6_0" index="0" disallow="tram rail_urban rail rail_electric ship" speed="13.89" length="16.25" shape="445.22,1345.33 429.38,1348.96"/>
    </edge>
    <edge id=":69387071_7" function="internal">
        <lane id=":69387071_7_0" index="0" disallow="tram rail_urban rail rail_electric ship" speed="20.84" length="7.70" shape="445.22,1345.33 440.96,1345.89 437.69,1345.39 437.61,1345.33"/>
    </edge>
    <edge id=":69387071_8" function="internal">
        <lane id=":69387071_8_0" index="0" disallow="tram rail_urban rail rail_electric ship" speed="13.89" length="2.41" shape="445.22,1345.33 443.83,1344.80 443.24,1344.09"/>
    </edge>
    <edge id=":69387071_20" function="internal">
        <lane id=":69387071_20_0" index="0" speed="20.84" length="5.57" shape="437.61,1345.33 435.42,1343.83 434.14,1341.21"/>
    </edge>
    <edge id=":69387071_21" function="internal">
        <lane id=":69387071_21_0" index="0" speed="13.89" length="2.41" shape="443.24,1344.09 443.46,1343.20 444.48,1342.12"/>
    </edge>
    <edge id=":69387071_9" function="internal">
        <lane id=":69387071_9_0" index="0" disallow="tram rail_urban rail rail_electric ship" speed="20.84" length="5.30" shape="440.54,1339.61 441.09,1340.98 441.93,1341.85 443.06,1342.23 444.48,1342.12"/>
    </edge>
    <edge id=":69387071_10" function="internal">
        <lane id=":69387071_10_0" index="0" disallow="tram rail_urban rail rail_electric ship" speed="27.78" length="9.77" shape="440.54,1339.61 442.93,1349.08"/>
        <lane id=":69387071_10_1" index="1" disallow="tram rail_urban rail rail_electric ship" speed="27.78" length="9.77" shape="437.34,1340.41 439.74,1349.89"/>
    </edge>
    <edge id=":69387071_12" function="internal">
        <lane id=":69387071_12_0" index="0" disallow="tram rail_urban rail rail_electric ship" speed="20.84" length="4.52" shape="437.34,1340.41 437.44,1343.33 436.68,1344.74"/>
    </edge>
    <edge id=":69387071_13" function="internal">
        <lane id=":69387071_13_0" index="0" disallow="tram rail_urban rail rail_electric ship" speed="27.78" length="2.41" shape="437.34,1340.41 436.84,1341.81 436.14,1342.41"/>
    </edge>
    <edge id=":69387071_22" function="internal">
        <lane id=":69387071_22_0" index="0" speed="20.84" length="8.70" shape="436.68,1344.74 436.14,1345.73 433.46,1347.60 429.38,1348.96"/>
    </edge>
    <edge id=":69387071_23" function="internal">
        <lane id=":69387071_23_0" index="0" speed="27.78" length="2.41" shape="436.14,1342.41 435.24,1342.21 434.14,1341.21"/>
    </edge>
    <edge id=":69387071_14" function="internal">
        <lane id=":69387071_14_0" index="0" disallow="tram rail_urban rail rail_electric ship" speed="20.84" length="5.02" shape="428.64,1345.74 429.93,1345.25 430.74,1344.46 431.08,1343.38 430.94,1342.01"/>
    </edge>
    <edge id=":69387071_15" function="internal">
        <lane id=":69387071_15_0" index="0" disallow="tram rail_urban rail rail_electric ship" speed="13.89" length="16.25" shape="428.64,1345.74 444.48,1342.12"/>
    </edge>
    <edge id=":69387071_16" function="internal">
        <lane id=":69387071_16_0" index="0" disallow="tram rail_urban rail rail_electric ship" speed="20.84" length="7.59" shape="428.64,1345.74 432.89,1345.19 436.15,1345.70"/>
    </edge>
    <edge id=":69387071_17" function="internal">
        <lane id=":69387071_17_0" index="0" disallow="tram rail_urban rail rail_electric ship" speed="13.89" length="2.41" shape="428.64,1345.74 430.03,1346.27 430.62,1346.98"/>
    </edge>
    <edge id=":69387071_24" function="internal">
        <lane id=":69387071_24_0" index="0" speed="20.84" length="5.70" shape="436.15,1345.70 438.44,1347.26 439.74,1349.89"/>
    </edge>
    <edge id=":69387071_25" function="internal">
        <lane id=":69387071_25_0" index="0" speed="13.89" length="2.41" shape="430.62,1346.98 430.40,1347.88 429.38,1348.96"/>
    </edge>
    <edge id=":69387078_0" function="internal">
        <lane id=":69387078_0_0" index="0" disallow="tram rail_urban rail rail_electric ship" speed="13.89" length="4.82" shape="515.24,1342.21 516.45,1343.07 516.84,1343.91 516.40,1344.72 515.14,1345.51"/>
    </edge>
    <edge id=":69421271_0" function="internal">
        <lane id=":69421271_0_0" index="0" disallow="tram rail_urban rail rail_electric ship" speed="27.78" length="4.14" shape="315.64,1601.77 314.53,1601.13 314.13,1600.45 314.44,1599.71 315.45,1598.94"/>
    </edge>
    <edge id=":69421277_0" function="internal">
        <lane id=":69421277_0_0" index="0" disallow="tram rail_urban rail rail_electric ship" speed="27.78" length="19.46" shape="439.44,1595.04 434.49,1596.80 430.52,1599.43 427.52,1602.95 425.51,1607.34"/>
    </edge>
    <edge id=":69421277_1" function="internal">
        <lane id=":69421277_1_0" index="0" disallow="tram rail_urban rail rail_electric ship" speed="27.78" length="26.80" shape="439.44,1595.04 432.66,1596.80 426.47,1598.48 420.24,1599.93 413.34,1601.03"/>
    </edge>
    <edge id=":69421277_2" function="internal">
        <lane id=":69421277_2_0" index="0" disallow="tram rail_urban rail rail_electric ship" speed="27.78" length="12.05" shape="438.35,1591.90 431.56,1592.52 427.12,1590.50 426.97,1590.18"/>
    </edge>
    <edge id=":69421277_3" function="internal">
        <lane id=":69421277_3_0" index="0" disallow="tram rail_urban rail rail_electric ship" speed="27.78" length="2.42" shape="438.35,1591.90 436.90,1591.53 436.24,1590.88"/>
    </edge>
    <edge id=":69421277_16" function="internal">
        <lane id=":69421277_16_0" index="0" speed="27.78" length="12.06" shape="426.97,1590.18 425.02,1585.84 425.26,1578.55"/>
    </edge>
    <edge id=":69421277_17" function="internal">
        <lane id=":69421277_17_0" index="0" speed="27.78" length="2.42" shape="436.24,1590.88 436.36,1589.96 437.26,1588.77"/>
    </edge>
    <edge id=":69421277_4" function="internal">
        <lane id=":69421277_4_0" index="0" disallow="tram rail_urban rail rail_electric ship" speed="27.78" length="5.68" shape="431.77,1579.61 431.74,1581.24 432.28,1582.27 433.40,1582.69 435.09,1582.51"/>
    </edge>
    <edge id=":69421277_5" function="internal">
        <lane id=":69421277_5_0" index="0" disallow="tram rail_urban rail rail_electric ship" speed="27.78" length="28.45" shape="431.77,1579.61 430.53,1586.77 429.16,1593.60 427.53,1600.37 425.51,1607.34"/>
    </edge>
    <edge id=":69421277_6" function="internal">
        <lane id=":69421277_6_0" index="0" disallow="tram rail_urban rail rail_electric ship" speed="27.78" length="18.06" shape="428.51,1579.08 426.49,1586.68 423.23,1592.33 420.40,1594.66"/>
    </edge>
    <edge id=":69421277_7" function="internal">
        <lane id=":69421277_7_0" index="0" disallow="tram rail_urban rail rail_electric ship" speed="27.78" length="2.41" shape="428.51,1579.08 427.50,1580.17 426.62,1580.44"/>
    </edge>
    <edge id=":69421277_18" function="internal">
        <lane id=":69421277_18_0" index="0" speed="27.78" length="8.13" shape="420.40,1594.66 418.74,1596.02 413.01,1597.75"/>
    </edge>
    <edge id=":69421277_19" function="internal">
        <lane id=":69421277_19_0" index="0" speed="27.78" length="2.41" shape="426.62,1580.44 425.87,1579.90 425.26,1578.55"/>
    </edge>
    <edge id=":69421277_8" function="internal">
        <lane id=":69421277_8_0" index="0" disallow="tram rail_urban rail rail_electric ship" speed="27.78" length="17.33" shape="412.17,1589.57 415.62,1589.68 418.41,1587.80 420.54,1583.91 422.00,1578.01"/>
    </edge>
    <edge id=":69421277_9" function="internal">
        <lane id=":69421277_9_0" index="0" disallow="tram rail_urban rail rail_electric ship" speed="27.78" length="24.79" shape="412.17,1589.57 418.31,1590.55 423.34,1589.74 428.79,1587.86 436.18,1585.64"/>
    </edge>
    <edge id=":69421277_10" function="internal">
        <lane id=":69421277_10_0" index="0" disallow="tram rail_urban rail rail_electric ship" speed="27.78" length="10.05" shape="412.53,1593.12 417.95,1595.36 421.13,1598.08"/>
    </edge>
    <edge id=":69421277_11" function="internal">
        <lane id=":69421277_11_0" index="0" disallow="tram rail_urban rail rail_electric ship" speed="27.78" length="3.40" shape="412.53,1593.12 414.39,1594.10 415.09,1595.20"/>
    </edge>
    <edge id=":69421277_20" function="internal">
        <lane id=":69421277_20_0" index="0" speed="27.78" length="8.70" shape="421.13,1598.08 421.40,1598.31 422.87,1601.97 422.37,1606.35"/>
    </edge>
    <edge id=":69421277_21" function="internal">
        <lane id=":69421277_21_0" index="0" speed="27.78" length="3.40" shape="415.09,1595.20 414.63,1596.42 413.01,1597.75"/>
    </edge>
    <edge id=":69421277_12" function="internal">
        <lane id=":69421277_12_0" index="0" disallow="tram rail_urban rail rail_electric ship" speed="27.78" length="5.60" shape="416.07,1604.36 416.35,1602.73 415.99,1601.63 414.99,1601.07 413.34,1601.03"/>
    </edge>
    <edge id=":69421277_13" function="internal">
        <lane id=":69421277_13_0" index="0" disallow="tram rail_urban rail rail_electric ship" speed="27.78" length="27.03" shape="416.07,1604.36 418.04,1597.61 419.56,1591.31 420.81,1584.95 422.00,1578.01"/>
    </edge>
    <edge id=":69421277_14" function="internal">
        <lane id=":69421277_14_0" index="0" disallow="tram rail_urban rail rail_electric ship" speed="27.78" length="14.85" shape="419.22,1605.35 421.91,1599.37 425.81,1594.61 427.57,1593.39"/>
    </edge>
    <edge id=":69421277_15" function="internal">
        <lane id=":69421277_15_0" index="0" disallow="tram rail_urban rail rail_electric ship" speed="27.78" length="2.41" shape="419.22,1605.35 420.38,1604.42 421.29,1604.28"/>
    </edge>
    <edge id=":69421277_22" function="internal">
        <lane id=":69421277_22_0" index="0" speed="27.78" length="10.82" shape="427.57,1593.39 430.93,1591.07 437.26,1588.77"/>
    </edge>
    <edge id=":69421277_23" function="internal">
        <lane id=":69421277_23_0" index="0" speed="27.78" length="2.41" shape="421.29,1604.28 421.95,1604.92 422.37,1606.35"/>
    </edge>
    <edge id=":69515841_0" function="internal">
        <lane id=":69515841_0_0" index="0" disallow="tram rail_urban rail rail_electric ship" speed="11.18" length="4.82" shape="344.34,810.00 345.10,808.72 345.90,808.26 346.75,808.63 347.64,809.82"/>
    </edge>
    <edge id=":69515842_0" function="internal">
        <lane id=":69515842_0_0" index="0" disallow="tram rail_urban rail rail_electric ship" speed="12.29" length="5.09" shape="354.12,1062.02 353.87,1060.64 353.23,1059.70 352.21,1059.20 350.80,1059.16"/>
    </edge>
    <edge id=":69515842_1" function="internal">
        <lane id=":69515842_1_0" index="0" disallow="tram rail_urban rail rail_electric ship" speed="11.18" length="16.75" shape="354.12,1062.02 353.36,1045.29"/>
    </edge>
    <edge id=":69515842_2" function="internal">
        <lane id=":69515842_2_0" index="0" disallow="tram rail_urban rail rail_electric ship" speed="12.29" length="11.20" shape="357.42,1061.90 357.86,1057.43 359.58,1054.11 361.99,1052.37"/>
    </edge>
    <edge id=":69515842_3" function="internal">
        <lane id=":69515842_3_0" index="0" disallow="tram rail_urban rail rail_electric ship" speed="11.18" length="2.41" shape="357.42,1061.90 358.19,1060.63 359.00,1060.18"/>
    </edge>
    <edge id=":69515842_16" function="internal">
        <lane id=":69515842_16_0" index="0" speed="12.29" length="5.11" shape="361.99,1052.37 362.58,1051.95 366.85,1050.94"/>
    </edge>
    <edge id=":69515842_17" function="internal">
        <lane id=":69515842_17_0" index="0" speed="11.18" length="2.41" shape="359.00,1060.18 359.84,1060.56 360.72,1061.77"/>
    </edge>
    <edge id=":69515842_4" function="internal">
        <lane id=":69515842_4_0" index="0" disallow="tram rail_urban rail rail_electric ship" speed="12.29" length="6.19" shape="367.43,1057.56 365.87,1057.74 364.78,1058.48 364.16,1059.78 364.01,1061.64"/>
    </edge>
    <edge id=":69515842_5" function="internal">